1_source_data/network/Texas2k/Texas2k_series2025/Expansion_Planning_Problem_Data/Texas2k_2016_with_2025_subs_gen_load.aux
// AUX file written by GridWorkbench

DATA (SuperArea, [SAName])
{
""     
"Texas"
}

DATA (Area, [AreaNum, AreaName, SAName])
{
1 "Far West"      ""
2 "North"         ""
3 "West"          ""
4 "South"         ""
5 "North Central" ""
6 "South Central" ""
7 "Coast"         ""
8 "East"          ""
}

DATA (Substation, [SubNum, SubName, Latitude, Longitude, AreaNum])
{
1    "ODESSA 2"               31.8414            -102.315    1
2    "PRESIDIO 2"             29.888046          -104.519139 1
3    "O DONNELL 1"            32.926389          -101.647778 1
4    "BIG SPRING 5"           32.240278          -101.473611 1
5    "VAN HORN"               31.09348           -104.624514 1
6    "IRAAN 2"                30.976638          -102.257753 1
7    "PRESIDIO 1"             29.6               -104.3      1
8    "SANDERSON"              30.028067          -101.970461 1
9    "MONAHANS 2"             31.484586          -103.161046 1
10   "GRANDFALLS"             31.165245          -103.125868 1
11   "MARFA"                  30.285296          -104.005761 1
12   "GARDEN CITY"            31.74325           -101.493407 1
13   "ODESSA 4"               31.725171          -102.413607 1
14   "NOTREES"                31.799171          -102.632933 1
15   "MIDLAND 4"              31.979427          -102.132366 1
16   "BIG SPRING 1"           31.9925            -101.1167   1
17   "O DONNELL 2"            32.929014          -101.578617 1
18   "ODESSA 6"               32.0015            -102.6337   1
19   "BIG SPRINGS"            32.039             -101.22     1
20   "MIDLAND 2"              32.321673          -102.042298 1
21   "COAHOMA"                32.875073          -101.208955 1
22   "MIDLAND 3"              31.992384          -102.081464 1
23   "ALPINE"                 29.802094          -103.22236  1
24   "FORT DAVIS"             31.004969          -103.759065 1
25   "MCCAMEY 1"              31.219444          -102.19222  1
26   "BIG SPRING 4"           31.991442          -101.302637 1
27   "CRANE"                  31.10409           -102.60625  1
28   "ODESSA 5"               31.799158          -102.47409  1
29   "FORT STOCKTON 1"        30.772575          -102.505808 1
30   "ANDREWS"                32.335729          -102.697303 1
31   "FORSAN"                 32.1408            -101.3986   1
32   "BIG LAKE"               31.207988          -101.110787 1
33   "MIDLAND 5"              32.053604          -102.20166  1
34   "OZONA"                  30.575618          -101.331239 1
35   "MONAHANS 1"             31.5839            -102.9633   1
36   "STANTON"                32.489818          -101.754488 1
37   "ODONNELL"               32.92701           -101.764414 1
38   "LENORAH"                32.2353            -101.8367   1
39   "IRAAN 3"                30.8847            -101.9208   1
40   "BIG SPRING 6"           32.273178          -101.422386 1
41   "ODESSA 3"               32.001129          -102.312423 1
42   "BIG SPRING 3"           32.100823          -101.451385 1
43   "BIG SPRING 7"           32.1217            -101.3853   1
44   "MIDLAND 1"              31.517628          -101.918007 1
45   "IRAAN 1"                30.9178            -102.0867   1
46   "ODESSA 1"               31.8403            -102.3264   1
47   "FORT STOCKTON 2"        30.807272          -102.355628 1
48   "FORT STOCKTON 3"        30.747459          -102.790792 1
49   "BIG SPRING 2"           31.9361            -101.2983   1
50   "KERMIT"                 31.696251          -103.138992 1
51   "PECOS"                  31.803547          -103.599914 1
52   "SHEFFIELD"              30.596998          -101.78453  1
53   "MCCAMEY 2"              31.2092            -102.2417   1
54   "LAMESA"                 32.929648          -102.133506 1
55   "GOLDSMITH"              31.995             -102.828333 1
56   "RALLS 2"                33.658671          -101.531037 1
57   "PARIS 3"                33.63291           -95.39071   2
58   "SAVOY"                  33.628143          -96.367605  2
59   "HONEY GROVE"            33.615167          -95.900109  2
60   "MEMPHIS"                34.857258          -100.512868 2
61   "IOWA PARK"              33.973297          -98.721096  2
62   "VERNON 2"               33.915315          -99.740278  2
63   "PANHANDLE 2"            35.238333          -101.310833 2
64   "CHILDRESS"              34.447226          -100.809848 2
65   "FORESTBURG"             33.471617          -97.445189  2
66   "SHERMAN 3"              33.627623          -96.767394  2
67   "PANHANDLE 4"            35.4275            -101.253056 2
68   "WICHITA FALLS 6"        33.943784          -98.523064  2
69   "PARIS 2"                33.6968            -95.5577    2
70   "WICHITA FALLS 4"        33.864515          -98.491046  2
71   "WHEELER"                35.830763          -100.765905 2
72   "DEPORT"                 33.481551          -95.269247  2
73   "WICHITA FALLS 3"        34.004783          -98.388757  2
74   "SILVERTON"              34.432267          -101.237233 2
75   "BONHAM"                 33.708311          -96.240654  2
76   "MATADOR"                33.710684          -100.384217 2
77   "ARTHUR CITY"            33.857868          -95.649137  2
78   "LEONARD"                33.500378          -96.146489  2
79   "GORDONVILLE"            33.830932          -96.839764  2
80   "KNOX CITY"              33.431837          -99.853667  2
81   "WICHITA FALLS 7"        33.894941          -98.54367   2
82   "LINDSAY"                33.54915           -97.32958   2
83   "ECTOR"                  33.55352           -96.282897  2
84   "SUNSET"                 33.455991          -97.751818  2
85   "CLARKSVILLE"            33.663063          -94.997258  2
86   "PANHANDLE 3"            35.386038          -101.578572 2
87   "SADLER"                 33.737974          -96.839543  2
88   "WHITESBORO"             33.743893          -96.936121  2
89   "SHEPPARD AFB"           33.969523          -98.509016  2
90   "POTTSBORO"              33.800717          -96.725989  2
91   "BELLS"                  33.623645          -96.427874  2
92   "CROSBYTON"              33.752201          -100.967402 2
93   "ELECTRA"                34.102943          -99.118746  2
94   "PATTONVILLE"            33.39167           -95.42519   2
95   "HENRIETTA"              33.75849           -98.202251  2
96   "PANHANDLE 6"            34.90076           -100.994549 2
97   "BOWIE"                  33.520572          -97.95612   2
98   "WICHITA FALLS 1"        33.9133            -98.4931    2
99   "WHITE DEER"             35.4789            -101.2439   2
100  "ROXTON"                 33.576823          -95.809701  2
101  "VERNON 1"               34.292913          -99.367734  2
102  "DENISON 2"              33.8181            -96.5692    2
103  "SUMNER"                 33.745236          -95.744327  2
104  "GAINESVILLE"            33.661583          -97.17635   2
105  "ASPERMONT"              33.183064          -100.245133 2
106  "WICHITA FALLS 5"        33.799085          -98.50984   2
107  "WINDTHORST"             33.509722          -98.360833  2
108  "HOWE"                   33.450768          -96.742245  2
109  "ARCHER 2"               33.493056          -98.581944  2
110  "COLLINSVILLE"           33.537706          -96.906575  2
111  "JAYTON"                 32.96736           -100.56428  2
112  "MUENSTER 1"             33.733006          -97.428406  2
113  "PADUCAH"                33.994322          -100.287247 2
114  "NOCONA"                 33.793074          -97.963802  2
115  "DODD CITY"              33.615539          -96.072156  2
116  "WICHITA FALLS 2"        33.8625            -98.5894    2
117  "MONTAGUE"               33.626904          -97.687873  2
118  "SPUR"                   33.341053          -100.714732 2
119  "ARCHER 1"               33.495278          -98.5       2
120  "ANNONA"                 33.498221          -94.890845  2
121  "SEYMOUR"                33.57824           -99.1921    2
122  "DENISON 1"              33.727126          -96.470794  2
123  "PANHANDLE 5"            35.3503            -101.54     2
124  "RALLS 1"                33.713671          -101.433811 2
125  "SHERMAN 1"              33.582573          -96.617893  2
126  "WHITEWRIGHT"            33.498186          -96.378894  2
127  "SHERMAN 2"              33.604131          -96.550405  2
128  "ROCHESTER"              33.345366          -99.624257  2
129  "BURKBURNETT"            34.103273          -98.622467  2
130  "MUENSTER 2"             33.703851          -97.372009  2
131  "ARCHER CITY"            33.527396          -98.884782  2
132  "PETROLIA"               34.008308          -98.25932   2
133  "PARIS 1"                33.6308            -95.59      2
134  "BAGWELL"                33.801868          -95.151966  2
135  "TELEPHONE"              33.778716          -95.996823  2
136  "PANHANDLE 1"            35.442778          -101.372778 2
137  "VAN ALSTYNE"            33.43566           -96.549913  2
138  "TIOGA"                  33.464643          -96.892724  2
139  "VALLEY VIEW"            33.458028          -97.128552  2
140  "MIAMI"                  35.653889          -100.538611 2
141  "TRENTON"                33.439125          -96.311485  2
142  "HASKELL"                33.186882          -99.595332  2
143  "SAINT JO"               33.741367          -97.535329  2
144  "KERRVILLE"              30.036701          -99.163039  3
145  "SWEETWATER 4"           32.3606            -100.3389   3
146  "LEAKEY"                 29.64447           -99.682471  3
147  "HAMLIN"                 32.857004          -100.124032 3
148  "MERKEL 3"               32.473621          -100.032723 3
149  "COLEMAN"                31.736902          -99.567791  3
150  "SONORA"                 30.441414          -100.56062  3
151  "CAMP WOOD"              29.6747            -100.078588 3
152  "LLANO"                  30.653746          -98.918266  3
153  "WILLOW CITY"            30.437069          -98.708714  3
154  "ABILENE 4"              32.335677          -99.667488  3
155  "KINGSLAND"              30.731599          -98.385422  3
156  "ROSCOE 6"               32.415212          -100.573539 3
157  "BLACKWELL"              32.255978          -100.320309 3
158  "CHRISTOVAL"             31.048557          -100.623114 3
159  "LUEDERS"                32.783669          -99.720186  3
160  "COLORADO CITY"          32.3358            -100.9156   3
161  "STAMFORD"               32.940911          -99.850964  3
162  "ELDORADO"               30.883539          -100.595464 3
163  "SAN SABA"               31.157093          -98.763991  3
164  "ABILENE 2"              32.6256            -99.4928    3
165  "LOMETA"                 31.257224          -98.376742  3
166  "SAN ANGELO 1"           31.50972           -100.322075 3
167  "TUSCOLA"                32.274081          -99.826041  3
168  "ABILENE 7"              32.333551          -99.927724  3
169  "SNYDER 1"               32.631073          -101.008494 3
170  "CHEROKEE"               30.93982           -99.079893  3
171  "RICHLAND SPRINGS"       31.5481            -99.1872    3
172  "ROSCOE 2"               32.4694            -100.6664   3
173  "BALLINGER"              31.738576          -99.934162  3
174  "SILVER"                 32.05              -100.6917   3
175  "ROSCOE 5"               32.3122            -100.5303   3
176  "ANSON"                  32.796921          -99.880885  3
177  "DEL RIO"                29.83722           -101.212436 3
178  "HUNT"                   30.095115          -99.628211  3
179  "WINGATE"                32.214024          -100.05712  3
180  "STERLING CITY 1"        31.951958          -101.018936 3
181  "ROSCOE 4"               32.199366          -100.491908 3
182  "BRADY"                  31.176951          -99.616412  3
183  "TRENT 1"                32.4301            -100.235652 3
184  "OVALO"                  32.120249          -99.753027  3
185  "NOLAN"                  32.2878            -100.1      3
186  "MILES"                  31.534768          -100.113803 3
187  "BRACKETTVILLE 2"        29.234722          -100.209167 3
188  "MASON"                  30.843122          -99.570053  3
189  "BRACKETTVILLE 3"        29.395621          -100.439985 3
190  "ABILENE 6"              32.362783          -99.817314  3
191  "HERMLEIGH"              32.5886            -100.6728   3
192  "MERKEL 1"               32.318221          -100.176986 3
193  "LORAINE 1"              32.4375            -100.7444   3
194  "ABILENE 1"              32.5144            -99.6564    3
195  "ROCKSPRINGS"            29.988092          -100.286076 3
196  "MERKEL 2"               32.311556          -100.061589 3
197  "FLUVANNA 2"             32.94793           -101.147784 3
198  "DYESS AFB"              32.415823          -99.90623   3
199  "HAWLEY"                 32.630473          -99.830642  3
200  "BUCHANAN DAM 2"         30.936768          -98.467066  3
...
}

DATA (Bus, [BusNum, BusName, BusNomVolt, BusPUVolt, BusAngle, BusStatus, AreaNum, SubNum, ZoneNum])
{
1001  "ODESSA 2 0"               115.0 0.97943565 -22.7348437 "Connected" 1 1    1
1002  "PRESIDIO 2 0"             115.0 1.01273639 -18.0885449 "Connected" 1 2    1
1003  "O DONNELL 1 0"            115.0 1.0092629  -17.0866994 "Connected" 1 3    1
1004  "O DONNELL 1 1"            230.0 1.01307071 -18.9339989 "Connected" 1 3    1
1005  "BIG SPRING 5 0"           115.0 1.00557609 -16.0771571 "Connected" 1 4    1
1006  "BIG SPRING 5 1"           13.8  1.0        -13.9055907 "Connected" 1 4    1
1007  "VAN HORN 0"               115.0 1.01999998 -18.4672124 "Connected" 1 5    1
1008  "IRAAN 2 0"                115.0 1.01928506 -8.6052074  "Connected" 1 6    1
1009  "IRAAN 2 1"                13.8  1.00924017 -5.3095975  "Connected" 1 6    1
1010  "PRESIDIO 1 0"             115.0 1.01999998 -16.7923546 "Connected" 1 7    1
1011  "PRESIDIO 1 1"             22.0  1.02021114 -15.0098255 "Connected" 1 7    1
1012  "SANDERSON 0"              115.0 1.00599209 -25.3427835 "Connected" 1 8    1
1013  "MONAHANS 2 0"             115.0 1.0056772  -15.4365646 "Connected" 1 9    1
1014  "GRANDFALLS 0"             115.0 1.01235047 -11.9132497 "Connected" 1 10   1
1015  "MARFA 0"                  115.0 1.02181769 -18.2145006 "Connected" 1 11   1
1016  "GARDEN CITY 0"            115.0 1.01740691 -15.4854478 "Connected" 1 12   1
1017  "ODESSA 4 0"               115.0 0.9816734  -21.4262215 "Connected" 1 13   1
1018  "NOTREES 0"                115.0 0.99114688 -20.2161483 "Connected" 1 14   1
1019  "MIDLAND 4 0"              115.0 0.99949185 -22.3204169 "Connected" 1 15   1
1020  "BIG SPRING 1 0"           115.0 1.01999998 -15.2300638 "Connected" 1 16   1
1021  "BIG SPRING 1 1"           13.8  1.0        -8.6067605  "Connected" 1 16   1
1022  "O DONNELL 2 0"            115.0 1.01242309 -16.2046925 "Connected" 1 17   1
1023  "O DONNELL 2 1"            13.8  1.00999999 -7.3003928  "Connected" 1 17   1
1024  "ODESSA 6 0"               115.0 0.99449505 -19.2002493 "Connected" 1 18   1
1025  "BIG SPRINGS 0"            115.0 1.01628835 -14.1704058 "Connected" 1 19   1
1026  "BIG SPRINGS 1"            13.8  1.0        -4.6414623  "Connected" 1 19   1
1027  "MIDLAND 2 0"              115.0 1.00530464 -25.833336  "Connected" 1 20   1
1028  "COAHOMA 0"                115.0 1.01541594 -17.7171365 "Connected" 1 21   1
1029  "MIDLAND 3 0"              115.0 1.00241741 -24.8588876 "Connected" 1 22   1
1030  "ALPINE 0"                 115.0 1.0122298  -13.4114304 "Connected" 1 23   1
1031  "FORT DAVIS 0"             115.0 1.01218884 -17.6722583 "Connected" 1 24   1
1032  "MCCAMEY 1 0"              115.0 1.00065835 -12.2804707 "Connected" 1 25   1
1033  "MCCAMEY 1 1"              230.0 1.01675418 -16.8985146 "Connected" 1 25   1
1034  "BIG SPRING 4 0"           115.0 1.0045345  -14.3203487 "Connected" 1 26   1
1035  "BIG SPRING 4 1"           13.8  1.0        -11.0304159 "Connected" 1 26   1
1036  "CRANE 0"                  115.0 0.99762475 -12.5269717 "Connected" 1 27   1
1037  "ODESSA 5 0"               115.0 0.97450437 -22.5448002 "Connected" 1 28   1
1038  "FORT STOCKTON 1 0"        115.0 1.01656736 -7.646607   "Connected" 1 29   1
1039  "FORT STOCKTON 1 1"        22.0  1.0        -2.2630517  "Connected" 1 29   1
1040  "ANDREWS 0"                115.0 0.99401453 -20.4800405 "Connected" 1 30   1
1041  "FORSAN 0"                 115.0 1.00177462 -15.1075038 "Connected" 1 31   1
1042  "FORSAN 1"                 13.8  1.00177462 -15.1075038 "Connected" 1 31   1
1044  "BIG LAKE 0"               115.0 1.00675546 -25.963881  "Connected" 1 32   1
1045  "MIDLAND 5 0"              115.0 0.97742547 -24.4475558 "Connected" 1 33   1
1046  "OZONA 0"                  115.0 1.01763437 -22.4913965 "Connected" 1 34   1
1047  "MONAHANS 1 0"             115.0 1.00525078 -13.3500501 "Connected" 1 35   1
1048  "MONAHANS 1 1"             18.0  1.00525078 -13.3500501 "Connected" 1 35   1
1049  "MONAHANS 1 2"             18.0  1.00525078 -13.3500501 "Connected" 1 35   1
1050  "MONAHANS 1 3"             18.0  1.0        -8.284789   "Connected" 1 35   1
1051  "MONAHANS 1 4"             18.0  1.0        -6.8073889  "Connected" 1 35   1
1052  "MONAHANS 1 5"             18.0  1.0        -9.1343693  "Connected" 1 35   1
1053  "MONAHANS 1 6"             230.0 1.01740888 -17.3361595 "Connected" 1 35   1
1054  "STANTON 0"                115.0 1.00368438 -22.2923314 "Connected" 1 36   1
1055  "ODONNELL 0"               115.0 1.00140496 -18.1295625 "Connected" 1 37   1
1056  "LENORAH 0"                115.0 1.01999998 -21.8196117 "Connected" 1 38   1
1057  "LENORAH 1"                18.0  1.01999998 -21.8196117 "Connected" 1 38   1
1058  "IRAAN 3 0"                115.0 1.01937379 -11.2208834 "Connected" 1 39   1
1061  "BIG SPRING 6 0"           115.0 1.00655657 -17.2193636 "Connected" 1 40   1
1062  "BIG SPRING 6 1"           13.8  1.00655657 -17.2193636 "Connected" 1 40   1
1063  "BIG SPRING 6 2"           13.8  1.00655657 -17.2193636 "Connected" 1 40   1
1064  "ODESSA 3 0"               115.0 0.97203447 -24.1532725 "Connected" 1 41   1
1065  "BIG SPRING 3 0"           115.0 1.00426054 -14.9325783 "Connected" 1 42   1
1066  "BIG SPRING 3 1"           13.8  1.0        -7.3990541  "Connected" 1 42   1
1067  "BIG SPRING 7 0"           115.0 0.99859525 -15.6824804 "Connected" 1 43   1
1068  "MIDLAND 1 0"              115.0 0.9868034  -16.4368941 "Connected" 1 44   1
1069  "IRAAN 1 0"                115.0 1.0225598  -8.7325881  "Connected" 1 45   1
1070  "IRAAN 1 1"                13.8  1.03999996 -4.2287769  "Connected" 1 45   1
1071  "ODESSA 1 0"               115.0 0.98702675 -21.4740404 "Connected" 1 46   1
1072  "ODESSA 1 1"               18.0  1.00999999 -12.1100273 "Connected" 1 46   1
1073  "ODESSA 1 2"               18.0  1.00999999 -5.6819722  "Connected" 1 46   1
1074  "ODESSA 1 3"               18.0  1.00999999 -7.7380088  "Connected" 1 46   1
1075  "ODESSA 1 4"               18.0  1.00999999 -10.505543  "Connected" 1 46   1
1076  "ODESSA 1 5"               18.0  0.98702675 -21.4740404 "Connected" 1 46   1
1077  "ODESSA 1 6"               18.0  0.98702675 -21.4740404 "Connected" 1 46   1
1079  "ODESSA 1 8"               500.0 1.01621409 -38.5828592 "Connected" 1 46   1
1081  "ODESSA 1 10"              230.0 1.01999998 -18.6912865 "Connected" 1 46   1
1082  "FORT STOCKTON 2 0"        115.0 1.01941255 -5.9103917  "Connected" 1 47   1
1083  "FORT STOCKTON 3 0"        115.0 1.01886172 -9.8867427  "Connected" 1 48   1
1084  "BIG SPRING 2 0"           115.0 1.02251989 -16.4672058 "Connected" 1 49   1
1085  "KERMIT 0"                 115.0 1.00898696 -15.342869  "Connected" 1 50   1
1086  "PECOS 0"                  115.0 1.01537402 -17.5850566 "Connected" 1 51   1
1087  "SHEFFIELD 0"              115.0 1.01999998 -16.1254019 "Connected" 1 52   1
1088  "MCCAMEY 2 0"              115.0 1.0        -11.8784661 "Connected" 1 53   1
1089  "LAMESA 0"                 115.0 0.98063183 -21.3067529 "Connected" 1 54   1
1090  "GOLDSMITH 0"              115.0 1.01999998 -16.1450531 "Connected" 1 55   1
1091  "RALLS 2 0"                161.0 1.02483147 -31.017725  "Connected" 1 56   1
2001  "PARIS 3 0"                161.0 1.00175184 -59.982147  "Connected" 2 57   1
2002  "SAVOY 0"                  500.0 1.01106097 -61.566631  "Connected" 2 58   1
2003  "SAVOY 1"                  161.0 1.0093382  -63.8285465 "Connected" 2 58   1
2007  "HONEY GROVE 0"            161.0 1.00250875 -59.7519017 "Connected" 2 59   1
2008  "MEMPHIS 0"                161.0 1.0161296  -32.8330048 "Connected" 2 60   1
2009  "IOWA PARK 0"              161.0 1.01999998 -45.2153863 "Connected" 2 61   1
2010  "VERNON 2 0"               161.0 1.01999998 -36.4050857 "Connected" 2 62   1
2011  "PANHANDLE 2 0"            500.0 1.03887029 -32.1009794 "Connected" 2 63   1
2012  "PANHANDLE 2 1"            161.0 1.02709729 -29.8692412 "Connected" 2 63   1
2013  "PANHANDLE 2 2"            18.0  1.03051019 -29.7610297 "Connected" 2 63   1
2014  "CHILDRESS 0"              161.0 1.014488   -33.4089351 "Connected" 2 64   1
2015  "FORESTBURG 0"             161.0 1.00607821 -63.2927889 "Connected" 2 65   1
2016  "SHERMAN 3 0"              161.0 1.00601873 -69.9547949 "Connected" 2 66   1
2017  "PANHANDLE 4 0"            500.0 1.02839188 -32.24683   "Connected" 2 67   1
2018  "PANHANDLE 4 1"            161.0 1.02649222 -31.4567087 "Connected" 2 67   1
2019  "PANHANDLE 4 2"            20.0  1.02839188 -32.24683   "Connected" 2 67   1
2020  "WICHITA FALLS 6 0"        161.0 0.9951749  -44.8853831 "Connected" 2 68   1
2021  "PARIS 2 0"                500.0 1.01387327 -56.702369  "Connected" 2 69   1
2022  "PARIS 2 1"                161.0 1.01001015 -58.6375463 "Connected" 2 69   1
2023  "PARIS 2 2"                13.8  1.01999998 -55.1395201 "Connected" 2 69   1
2024  "PARIS 2 3"                13.8  1.01999998 -54.474073  "Connected" 2 69   1
2025  "WICHITA FALLS 4 0"        161.0 0.99407402 -44.1241355 "Connected" 2 70   1
2026  "WHEELER 0"                161.0 1.02648049 -31.0814931 "Connected" 2 71   1
2027  "DEPORT 0"                 161.0 1.00219656 -60.4130175 "Connected" 2 72   1
2028  "WICHITA FALLS 3 0"        161.0 0.99459266 -47.2497777 "Connected" 2 73   1
2029  "SILVERTON 0"              161.0 1.0200518  -32.7813851 "Connected" 2 74   1
2030  "BONHAM 0"                 161.0 0.98836528 -64.0397832 "Connected" 2 75   1
2031  "MATADOR 0"                161.0 1.02045881 -29.6387311 "Connected" 2 76   1
2032  "ARTHUR CITY 0"            161.0 1.00453598 -59.146912  "Connected" 2 77   1
2033  "LEONARD 0"                161.0 0.9908717  -65.5521833 "Connected" 2 78   1
2034  "GORDONVILLE 0"            161.0 1.00462093 -69.2831184 "Connected" 2 79   1
2035  "KNOX CITY 0"              161.0 1.01520733 -30.5607374 "Connected" 2 80   1
2036  "WICHITA FALLS 7 0"        161.0 0.99894099 -44.4832499 "Connected" 2 81   1
2037  "LINDSAY 0"                161.0 1.01667734 -63.6260603 "Connected" 2 82   1
2038  "ECTOR 0"                  161.0 1.0063308  -64.3013242 "Connected" 2 83   1
2039  "SUNSET 0"                 161.0 0.9912537  -60.6711636 "Connected" 2 84   1
2040  "CLARKSVILLE 0"            161.0 1.00743849 -59.3080232 "Connected" 2 85   1
2041  "PANHANDLE 3 0"            161.0 1.02802185 -27.6860922 "Connected" 2 86   1
2042  "PANHANDLE 3 1"            18.0  1.0194284  -25.1108298 "Connected" 2 86   1
2043  "SADLER 0"                 161.0 1.00504582 -69.5896474 "Connected" 2 87   1
2044  "WHITESBORO 0"             161.0 1.01305655 -65.3833286 "Connected" 2 88   1
2045  "SHEPPARD AFB 0"           161.0 0.99444968 -45.4239665 "Connected" 2 89   1
2046  "POTTSBORO 0"              161.0 1.00455947 -68.8967821 "Connected" 2 90   1
2047  "BELLS 0"                  161.0 1.00790219 -64.7299133 "Connected" 2 91   1
2048  "CROSBYTON 0"              161.0 1.02370314 -31.710962  "Connected" 2 92   1
2049  "ELECTRA 0"                161.0 1.01775813 -40.9464649 "Connected" 2 93   1
2050  "PATTONVILLE 0"            161.0 0.9941919  -63.2354098 "Connected" 2 94   1
2051  "HENRIETTA 0"              161.0 0.989552   -54.1403471 "Connected" 2 95   1
2052  "PANHANDLE 6 0"            161.0 1.01744483 -31.96347   "Connected" 2 96   1
2053  "BOWIE 0"                  161.0 0.99106335 -59.3603789 "Connected" 2 97   1
2054  "WICHITA FALLS 1 0"        500.0 0.99778112 -43.13131   "Connected" 2 98   1
2055  "WICHITA FALLS 1 1"        161.0 0.9973321  -43.9606778 "Connected" 2 98   1
2058  "WHITE DEER 0"             161.0 1.02835959 -27.2580329 "Connected" 2 99   1
2060  "ROXTON 0"                 161.0 0.99740494 -61.9509512 "Connected" 2 100  1
2061  "VERNON 1 0"               161.0 1.0211752  -37.4278191 "Connected" 2 101  1
2062  "VERNON 1 1"               18.0  1.01999998 -35.1310003 "Connected" 2 101  1
2063  "DENISON 2 0"              161.0 1.00606448 -68.258359  "Connected" 2 102  1
2064  "SUMNER 0"                 161.0 1.00310554 -60.2773805 "Connected" 2 103  1
2065  "GAINESVILLE 0"            161.0 1.01999998 -65.6007325 "Connected" 2 104  1
2066  "ASPERMONT 0"              161.0 1.01443598 -27.6287671 "Connected" 2 105  1
2067  "WICHITA FALLS 5 0"        161.0 0.99235682 -44.0479874 "Connected" 2 106  1
2068  "WINDTHORST 0"             161.0 0.99899508 -42.0163037 "Connected" 2 107  1
2069  "HOWE 0"                   161.0 1.01999998 -69.1168139 "Connected" 2 108  1
2070  "ARCHER 2 0"               161.0 1.00107652 -41.5980987 "Connected" 2 109  1
2071  "ARCHER 2 1"               18.0  1.0        -37.9196785 "Connected" 2 109  1
2072  "COLLINSVILLE 0"           161.0 1.01487594 -67.2406352 "Connected" 2 110  1
2073  "JAYTON 0"                 161.0 1.01551408 -25.1088342 "Connected" 2 111  1
2074  "JAYTON 1"                 115.0 1.00584887 -23.2368339 "Connected" 2 111  1
2076  "JAYTON 3"                 24.0  1.02077725 -24.2021401 "Connected" 2 111  1
2077  "MUENSTER 1 0"             161.0 1.01789644 -61.197723  "Connected" 2 112  1
2078  "MUENSTER 1 1"             13.8  1.01999998 -57.8750011 "Connected" 2 112  1
2079  "PADUCAH 0"                161.0 1.02229914 -34.6267383 "Connected" 2 113  1
2080  "NOCONA 0"                 161.0 0.99462183 -57.4991747 "Connected" 2 114  1
2081  "DODD CITY 0"              161.0 1.00093619 -65.1076722 "Connected" 2 115  1
2082  "WICHITA FALLS 2 0"        161.0 1.00287099 -44.8266313 "Connected" 2 116  1
2083  "WICHITA FALLS 2 1"        20.0  1.01759062 -43.2471037 "Connected" 2 116  1
2084  "WICHITA FALLS 2 2"        20.0  1.00287099 -44.8266313 "Connected" 2 116  1
2085  "WICHITA FALLS 2 3"        20.0  1.00287099 -44.8266313 "Connected" 2 116  1
2086  "MONTAGUE 0"               161.0 0.99244532 -59.4744989 "Connected" 2 117  1
2087  "SPUR 0"                   161.0 1.01737905 -27.4726352 "Connected" 2 118  1
2088  "ARCHER 1 0"               161.0 1.0000706  -41.7164019 "Connected" 2 119  1
2089  "ARCHER 1 1"               24.0  1.0        -38.1135015 "Connected" 2 119  1
2090  "ANNONA 0"                 161.0 1.00252268 -61.0332993 "Connected" 2 120  1
2091  "SEYMOUR 0"                161.0 1.01628147 -33.97855   "Connected" 2 121  1
2092  "DENISON 1 0"              161.0 1.00542438 -66.5685029 "Connected" 2 122  1
2093  "PANHANDLE 5 0"            161.0 1.02727135 -30.621379  "Connected" 2 123  1
2096  "RALLS 1 0"                500.0 1.0199998  -27.8431702 "Connected" 2 124  1
2097  "RALLS 1 1"                230.0 1.01926584 -27.2823079 "Connected" 2 124  1
2098  "RALLS 1 2"                161.0 1.02564787 -30.4265377 "Connected" 2 124  1
2099  "RALLS 1 3"                18.0  1.01999998 -27.6995495 "Connected" 2 124  1
2101  "SHERMAN 1 0"              500.0 1.01053903 -62.6732789 "Connected" 2 125  1
2102  "SHERMAN 1 1"              161.0 1.01059191 -64.1208818 "Connected" 2 125  1
2103  "SHERMAN 1 2"              20.0  1.01053903 -62.6732789 "Connected" 2 125  1
2104  "SHERMAN 1 3"              20.0  1.01053903 -62.6732789 "Connected" 2 125  1
2105  "SHERMAN 1 4"              20.0  1.01053903 -62.6732789 "Connected" 2 125  1
2106  "WHITEWRIGHT 0"            161.0 0.98913291 -66.1980087 "Connected" 2 126  1
2107  "SHERMAN 2 0"              161.0 1.00515006 -64.992908  "Connected" 2 127  1
2108  "ROCHESTER 0"              161.0 0.99910163 -43.6910937 "Connected" 2 128  1
2109  "BURKBURNETT 0"            161.0 1.0066134  -46.3572652 "Connected" 2 129  1
2110  "MUENSTER 2 0"             161.0 1.01999998 -62.2695615 "Connected" 2 130  1
2111  "ARCHER CITY 0"            161.0 0.9946072  -48.9901011 "Connected" 2 131  1
2112  "PETROLIA 0"               161.0 0.99165705 -49.379366  "Connected" 2 132  1
2113  "PARIS 1 0"                500.0 1.01377857 -56.2330814 "Connected" 2 133  1
2114  "PARIS 1 1"                161.0 1.01137358 -57.5201131 "Connected" 2 133  1
2115  "PARIS 1 2"                13.8  1.00488876 -52.2396103 "Connected" 2 133  1
2116  "PARIS 1 3"                13.8  1.00954291 -54.1639853 "Connected" 2 133  1
2117  "PARIS 1 4"                13.8  1.00215382 -51.6002676 "Connected" 2 133  1
2118  "PARIS 1 5"                13.8  1.00078437 -51.0924157 "Connected" 2 133  1
2119  "PARIS 1 6"                13.8  1.00846205 -53.711535  "Connected" 2 133  1
2120  "PARIS 1 7"                13.8  1.00999999 -51.3443283 "Connected" 2 133  1
2121  "BAGWELL 0"                161.0 1.00611513 -59.9413061 "Connected" 2 134  1
2122  "TELEPHONE 0"              161.0 0.99630187 -61.1430203 "Connected" 2 135  1
2123  "PANHANDLE 1 0"            161.0 1.02854314 -27.0293557 "Connected" 2 136  1
2124  "VAN ALSTYNE 0"            161.0 0.98777015 -67.2733034 "Connected" 2 137  1
...
}

DATA (Gen, [BusNum, GenID, GenStatus, GenMW, GenMVR, GenMWSetPoint, GenMvrSetPoint, GenMWMax, 
    GenMWMin, GenMVRMax, GenMVRMin, GenRegNum, GenVoltSet, GenAGCAble, GenAVRAble, GenMWRampLimit, 
    CustomFloat, CustomFloat:1, CustomFloat:2, GenFuelType, GenFuelCost, GenMVABase, GenFixedCost, 
    GenIOB, GenIOC, GenIOD, CustomString:0, CustomString:1])
{
1006  "1"  "Closed" 120.0  0 120.0  0 120.0  0.0    25.6  -17.3  1006  1.04 "No"  "Yes" "" "" "" "" "WND (Wind)"                             0 133.3  0 0                  0                     0 "56776" "1"    
1008  "1"  "Closed" 28.0   0 28.0   0 28.0   0      0     0      1008  1.04 "No"  "Yes" "" "" "" "" "SUN (Solar)"                            0 31.1   0 0                  0                     0 "61346" "PV2"  
1009  "1"  "Closed" 222.0  0 222.0  0 222.0  0      0     0      1009  1.04 "No"  "Yes" "" "" "" "" "SUN (Solar)"                            0 246.7  0 0                  0                     0 "61346" "PV1"  
1011  "1"  "Closed" 10.0   0 10.0   0 10.0   0      0     0      1011  1.04 "No"  "Yes" "" "" "" "" "SUN (Solar)"                            0 11.1   0 0                  0                     0 "58488" "1"    
1021  "1"  "Closed" 231.5  0 231.5  0 231.5  0.0    49.3  -33.3  1021  1.04 "No"  "Yes" "" "" "" "" "WND (Wind)"                             0 257.2  0 0                  0                     0 "56979" "1"    
1023  "1"  "Closed" 180.0  0 180.0  0 180.0  1.0    38.3  -25.9  1023  1.04 "No"  "Yes" "" "" "" "" "WND (Wind)"                             0 200.0  0 0                  0                     0 "56956" "001"  
1024  "1"  "Closed" 16.8   0 16.8   0 16.8   0      0     0      1024  1.04 "No"  "Yes" "" "" "" "" "SUN (Solar)"                            0 18.7   0 0                  0                     0 "63388" "SOLAR"
1026  "1"  "Closed" 124.2  0 124.2  0 124.2  0.0    26.5  -17.9  1026  1.04 "No"  "Yes" "" "" "" "" "WND (Wind)"                             0 138.0  0 0                  0                     0 "56394" "1"    
1033  "BA" "Closed" 50.0   0 50.0   0 50.0   0      0     0      1033  1.04 "No"  "Yes" "" "" "" "" "MWH (Electricity use for Energy Storage)" 0 55.6   0 0                  0                     0 "62561" "BA"   
1035  "2"  "Closed" 89.5   0 89.5   0 89.5   0.0    19.1  -12.9  1035  1.04 "No"  "Yes" "" "" "" "" "WND (Wind)"                             0 99.4   0 0                  0                     0 "56479" "2"    
1039  "1"  "Closed" 132.0  0 132.0  0 132.0  2.0    28.1  -19.0  1039  1.04 "No"  "Yes" "" "" "" "" "WND (Wind)"                             0 146.7  0 0                  0                     0 "57415" "1"    
1042  "1"  "Closed" 121.9  0 121.9  0 121.9  1.0    26.0  -17.6  1042  1.04 "No"  "Yes" "" "" "" "" "WND (Wind)"                             0 135.4  0 0                  0                     0 "56783" "1"    
1048  "1"  "Closed" 65.0   0 65.0   0 65.0   41.0   33.1  -7.2   1048  1.04 "Yes" "Yes" "" "" "" "" "NG (Natural Gas)"                       1 72.2   0 4.658241106719368  0.004907053855487716  0 "3494"  "CT5"  
1049  "1"  "Closed" 64.0   0 64.0   0 64.0   41.0   32.6  -7.1   1049  1.04 "Yes" "Yes" "" "" "" "" "NG (Natural Gas)"                       1 71.1   0 4.656901185770751  0.003615561573417416  0 "3494"  "CT2"  
1050  "1"  "Closed" 64.0   0 64.0   0 64.0   41.0   32.6  -7.1   1050  1.04 "Yes" "Yes" "" "" "" "" "NG (Natural Gas)"                       1 71.1   0 4.656901185770751  0.00451549646263521   0 "3494"  "CT3"  
1051  "1"  "Closed" 64.0   0 64.0   0 64.0   41.0   32.6  -7.1   1051  1.04 "Yes" "Yes" "" "" "" "" "NG (Natural Gas)"                       1 71.1   0 4.656901185770751  0.004225781037053913  0 "3494"  "CT4"  
1052  "1"  "Closed" 63.0   0 63.0   0 63.0   41.0   32.1  -7.0   1052  1.04 "Yes" "Yes" "" "" "" "" "NG (Natural Gas)"                       1 70.0   0 4.6555612648221345 0.003890438101981184  0 "3494"  "CT1"  
1057  "1"  "Closed" 120.0  0 120.0  0 120.0  0.0    25.6  -17.3  1057  1.04 "No"  "Yes" "" "" "" "" "WND (Wind)"                             0 133.3  0 0                  0                     0 "56644" "1"    
1062  "1"  "Closed" 71.0   0 71.0   0 71.0   45.0   36.1  -7.9   1062  1.04 "Yes" "Yes" "" "" "" "" "NG (Natural Gas)"                       1 78.9   0 4.666280632411068  0.0037904818441727058 0 "52176" "GEN1" 
1063  "1"  "Closed" 71.0   0 71.0   0 71.0   45.0   36.1  -7.9   1063  1.04 "Yes" "Yes" "" "" "" "" "NG (Natural Gas)"                       1 78.9   0 4.666280632411068  0.004995543804556525  0 "52176" "GEN2" 
1066  "1"  "Closed" 142.5  0 142.5  0 142.5  0.0    30.4  -20.5  1066  1.04 "No"  "Yes" "" "" "" "" "WND (Wind)"                             0 158.3  0 0                  0                     0 "56920" "1"    
1067  "1"  "Closed" 58.8   0 58.8   0 58.8   0.1    12.5  -8.5   1067  1.04 "No"  "Yes" "" "" "" "" "WND (Wind)"                             0 65.3   0 0                  0                     0 "56959" "OWF"  
1070  "1"  "Closed" 167.7  0 167.7  0 167.7  0.0    35.7  -24.1  1070  1.04 "No"  "Yes" "" "" "" "" "WND (Wind)"                             0 186.3  0 0                  0                     0 "55992" "1"    
1072  "1"  "Closed" 206.0  0 206.0  0 206.0  53.3   104.9 -22.9  1072  1.04 "Yes" "Yes" "" "" "" "" "NG (Natural Gas)"                       1 228.9  0 4.847169960474308  0.006645946457477604  0 "55215" "STG1" 
1073  "1"  "Closed" 206.0  0 206.0  0 206.0  55.6   104.9 -22.9  1073  1.04 "Yes" "Yes" "" "" "" "" "NG (Natural Gas)"                       1 228.9  0 4.847169960474308  0.007839540618167794  0 "55215" "STG2" 
1074  "1"  "Closed" 166.7  0 166.7  0 166.7  84.8   84.9  -18.5  1074  1.04 "Yes" "Yes" "" "" "" "" "NG (Natural Gas)"                       1 185.2  0 4.794511067193676  0.006291855251866871  0 "55215" "CTG1" 
1075  "1"  "Closed" 166.7  0 166.7  0 166.7  92.2   84.9  -18.5  1075  1.04 "Yes" "Yes" "" "" "" "" "NG (Natural Gas)"                       1 185.2  0 4.794511067193676  0.005958148968843683  0 "55215" "CTG3" 
1076  "1"  "Closed" 158.2  0 158.2  0 158.2  82.7   80.5  -17.6  1076  1.04 "Yes" "Yes" "" "" "" "" "NG (Natural Gas)"                       1 175.8  0 4.7831217391304355 0.005506967174611515  0 "55215" "CTG2" 
1077  "1"  "Closed" 158.2  0 158.2  0 158.2  95.2   80.5  -17.6  1077  1.04 "Yes" "Yes" "" "" "" "" "NG (Natural Gas)"                       1 175.8  0 4.7831217391304355 0.006842211376414022  0 "55215" "CTG4" 
1090  "GE" "Closed" 60.0   0 60.0   0 60.0   0.1    12.8  -8.6   1090  1.04 "No"  "Yes" "" "" "" "" "WND (Wind)"                             0 66.7   0 0                  0                     0 "56961" "GE"   
1090  "2"  "Closed" 36.0   0 36.0   0 36.0   0.0    0     0      1090  1.04 "No"  "Yes" "" "" "" "" "MWH (Electricity use for Energy Storage)" 0 40.0   0 0                  0                     0 "56961" "BATT" 
2001  "1"  "Closed" 10.0   0 10.0   0 10.0   0      0     0      2001  1.04 "No"  "Yes" "" "" "" "" "SUN (Solar)"                            0 11.1   0 0                  0                     0 "61810" "GEN1" 
2013  "1"  "Closed" 211.2  0 211.2  0 211.2  0.0    45.0  -30.4  2013  1.04 "No"  "Yes" "" "" "" "" "WND (Wind)"                             0 234.7  0 0                  0                     0 "58596" "GRVWI"
2019  "1"  "Closed" 218.0  0 218.0  0 218.0  218.0  46.4  -31.4  2019  1.04 "No"  "Yes" "" "" "" "" "WND (Wind)"                             0 242.2  0 0                  0                     0 "58242" "1"    
2023  "1"  "Closed" 87.0   0 87.0   0 87.0   20.0   44.3  -9.7   2023  1.04 "Yes" "Yes" "" "" "" "" "NG (Natural Gas)"                       1 96.7   0 4.687719367588933  0.0042519244229628    0 "50109" "GEN3" 
2024  "1"  "Closed" 76.0   0 76.0   0 76.0   40.0   38.7  -8.4   2024  1.04 "Yes" "Yes" "" "" "" "" "NG (Natural Gas)"                       1 84.4   0 4.6729802371541505 0.005190112294491388  0 "50109" "GEN1" 
2042  "1"  "Closed" 79.6   0 79.6   0 79.6   4.0    17.0  -11.5  2042  1.04 "No"  "Yes" "" "" "" "" "WND (Wind)"                             0 88.4   0 0                  0                     0 "58363" "WND1" 
2062  "1"  "Closed" 135.4  0 135.4  0 135.4  6.8    28.8  -19.5  2062  1.04 "No"  "Yes" "" "" "" "" "WND (Wind)"                             0 150.4  0 0                  0                     0 "58372" "GEN1" 
2063  "1"  "Closed" 50.0   0 50.0   0 50.0   25.0   19.2  -2.4   2063  1.04 "No"  "Yes" "" "" "" "" "WAT (Water)"                            0 55.6   0 0                  0                     0 "6416"  "1"    
2063  "2"  "Closed" 50.0   0 50.0   0 50.0   25.0   19.2  -2.4   2063  1.04 "No"  "Yes" "" "" "" "" "WAT (Water)"                            0 55.6   0 0                  0                     0 "6416"  "2"    
2071  "1"  "Closed" 161.0  0 161.0  0 161.0  0.0    34.3  -23.2  2071  1.04 "No"  "Yes" "" "" "" "" "WND (Wind)"                             0 178.9  0 0                  0                     0 "57974" "GEN1" 
2076  "1"  "Closed" 250.0  0 250.0  0 250.0  1.0    53.2  -36.0  2076  1.04 "No"  "Yes" "" "" "" "" "WND (Wind)"                             0 277.8  0 0                  0                     0 "62142" "AM-TX"
2078  "1"  "Closed" 112.5  0 112.5  0 112.5  5.6    24.0  -16.2  2078  1.04 "No"  "Yes" "" "" "" "" "WND (Wind)"                             0 125.0  0 0                  0                     0 "58080" "1"    
2082  "1"  "Closed" 17.0   0 17.0   0 17.0   2.0    8.7   -1.9   2082  1.04 "Yes" "Yes" "" "" "" "" "NG (Natural Gas)"                       1 18.9   0 4.593924901185771  0.0042878055927527085 0 "50127" "STD"  
2083  "1"  "Closed" 19.7   0 19.7   0 19.7   2.0    10.0  -2.2   2083  1.04 "Yes" "Yes" "" "" "" "" "NG (Natural Gas)"                       1 21.9   0 4.597542687747035  0.0031290278653683017 0 "50127" "GTA"  
2084  "1"  "Closed" 19.7   0 19.7   0 19.7   2.0    10.0  -2.2   2084  1.04 "Yes" "Yes" "" "" "" "" "NG (Natural Gas)"                       1 21.9   0 4.597542687747035  0.003128399402293759  0 "50127" "GTB"  
2085  "1"  "Closed" 19.7   0 19.7   0 19.7   2.0    10.0  -2.2   2085  1.04 "Yes" "Yes" "" "" "" "" "NG (Natural Gas)"                       1 21.9   0 4.597542687747035  0.0025519291016418448 0 "50127" "GTC"  
2089  "1"  "Closed" 67.6   0 67.6   0 67.6   0.0    14.4  -9.7   2089  1.04 "No"  "Yes" "" "" "" "" "WND (Wind)"                             0 75.1   0 0                  0                     0 "59238" "WND2" 
2091  "1"  "Closed" 30.2   0 30.2   0 30.2   2.5    6.4   -4.3   2091  1.04 "No"  "Yes" "" "" "" "" "WND (Wind)"                             0 33.6   0 0                  0                     0 "62227" "WTGS" 
2099  "1"  "Closed" 150.0  0 150.0  0 150.0  0      31.9  -21.6  2099  1.04 "No"  "Yes" "" "" "" "" "WND (Wind)"                             0 166.7  0 0                  0                     0 "60273" "WT1"  
2103  "1"  "Closed" 287.0  0 287.0  0 287.0  150.0  146.1 -31.9  2103  1.04 "Yes" "Yes" "" "" "" "" "NG (Natural Gas)"                       1 318.9  0 4.955703557312253  0.007176040353359645  0 "58005" "STG-1"
2104  "1"  "Closed" 199.0  0 199.0  0 199.0  125.0  101.3 -22.1  2104  1.04 "Yes" "Yes" "" "" "" "" "NG (Natural Gas)"                       1 221.1  0 4.837790513833992  0.006656513477208056  0 "58005" "CTG-1"
2105  "1"  "Closed" 199.0  0 199.0  0 199.0  125.0  101.3 -22.1  2105  1.04 "Yes" "Yes" "" "" "" "" "NG (Natural Gas)"                       1 221.1  0 4.837790513833992  0.006581609126620215  0 "58005" "CTG-2"
2106  "1"  "Closed" 10.0   0 10.0   0 10.0   0      0     0      2106  1.04 "No"  "Yes" "" "" "" "" "SUN (Solar)"                            0 11.1   0 0                  0                     0 "61524" "GEN1" 
2115  "1"  "Closed" 204.0  0 204.0  0 204.0  65.0   103.8 -22.6  2115  1.04 "Yes" "Yes" "" "" "" "" "NG (Natural Gas)"                       1 226.7  0 4.844490118577076  0.006718539538082338  0 "55097" "STG1" 
2116  "1"  "Closed" 204.0  0 204.0  0 204.0  65.0   103.8 -22.6  2116  1.04 "Yes" "Yes" "" "" "" "" "NG (Natural Gas)"                       1 226.7  0 4.844490118577076  0.00782999836170376   0 "55097" "STG2" 
2117  "1"  "Closed" 153.0  0 153.0  0 153.0  90.0   77.9  -17.0  2117  1.04 "Yes" "Yes" "" "" "" "" "NG (Natural Gas)"                       1 170.0  0 4.776154150197629  0.005668370805930313  0 "55097" "CTG1" 
2118  "1"  "Closed" 153.0  0 153.0  0 153.0  90.0   77.9  -17.0  2118  1.04 "Yes" "Yes" "" "" "" "" "NG (Natural Gas)"                       1 170.0  0 4.776154150197629  0.005596856567046022  0 "55097" "CTG4" 
2119  "1"  "Closed" 145.0  0 145.0  0 145.0  90.0   73.8  -16.1  2119  1.04 "Yes" "Yes" "" "" "" "" "NG (Natural Gas)"                       1 161.1  0 4.765434782608696  0.004984187489492856  0 "55097" "CTG2" 
2120  "1"  "Closed" 145.0  0 145.0  0 145.0  90.0   73.8  -16.1  2120  1.04 "Yes" "Yes" "" "" "" "" "NG (Natural Gas)"                       1 161.1  0 4.765434782608696  0.004854897025583214  0 "55097" "CTG3" 
3004  "1"  "Closed" 37.5   0 37.5   0 37.5   0.1    8.0   -5.4   3004  1.04 "No"  "Yes" "" "" "" "" "WND (Wind)"                             0 41.7   0 0                  0                     0 "56211" "SW1"  
3014  "1"  "Closed" 13.8   0 13.8   0 13.8   7.0    5.3   -0.7   3014  1.04 "No"  "Yes" "" "" "" "" "WAT (Water)"                            0 15.3   0 0                  0                     0 "3598"  "1"    
3017  "1"  "Closed" 418.9  0 418.9  0 418.9  23.0   89.2  -60.3  3017  1.04 "No"  "Yes" "" "" "" "" "WND (Wind)"                             0 465.4  0 0                  0                     0 "62587" "MESQ" 
3020  "1"  "Closed" 199.5  0 199.5  0 199.5  2.6    42.5  -28.7  3020  1.04 "No"  "Yes" "" "" "" "" "WND (Wind)"                             0 221.7  0 0                  0                     0 "61782" "WTGS" 
3028  "1"  "Closed" 200.0  0 200.0  0 200.0  50.0   42.6  -28.8  3028  1.04 "No"  "Yes" "" "" "" "" "WND (Wind)"                             0 222.2  0 0                  0                     0 "56395" "1"    
3034  "1"  "Closed" 311.0  0 311.0  0 311.0  0      66.2  -44.8  3034  1.04 "No"  "Yes" "" "" "" "" "WND (Wind)"                             0 345.6  0 0                  0                     0 "60271" "WT1"  
3039  "1"  "Closed" 209.0  0 209.0  0 209.0  0.0    44.5  -30.1  3039  1.04 "No"  "Yes" "" "" "" "" "WND (Wind)"                             0 232.2  0 0                  0                     0 "56593" "RO1"  
3055  "3"  "Closed" 299.0  0 299.0  0 299.0  0.1    63.7  -43.1  3055  1.04 "No"  "Yes" "" "" "" "" "WND (Wind)"                             0 332.2  0 0                  0                     0 "56291" "3"    
3056  "2"  "Closed" 223.5  0 223.5  0 223.5  0.1    47.6  -32.2  3056  1.04 "No"  "Yes" "" "" "" "" "WND (Wind)"                             0 248.3  0 0                  0                     0 "56291" "2"    
3057  "1"  "Closed" 213.0  0 213.0  0 213.0  0.1    45.4  -30.7  3057  1.04 "No"  "Yes" "" "" "" "" "WND (Wind)"                             0 236.7  0 0                  0                     0 "56291" "1"    
3060  "2"  "Closed" 214.5  0 214.5  0 214.5  7.5    45.7  -30.9  3060  1.04 "No"  "Yes" "" "" "" "" "WND (Wind)"                             0 238.3  0 0                  0                     0 "56763" "2"    
3061  "3"  "Closed" 186.0  0 186.0  0 186.0  14.9   39.6  -26.8  3061  1.04 "No"  "Yes" "" "" "" "" "WND (Wind)"                             0 206.7  0 0                  0                     0 "56763" "3"    
3062  "1"  "Closed" 149.5  0 149.5  0 149.5  21.5   31.8  -21.5  3062  1.04 "No"  "Yes" "" "" "" "" "WND (Wind)"                             0 166.1  0 0                  0                     0 "56763" "1"    
3063  "4"  "Closed" 112.5  0 112.5  0 112.5  5.6    24.0  -16.2  3063  1.04 "No"  "Yes" "" "" "" "" "WND (Wind)"                             0 125.0  0 0                  0                     0 "56763" "4"    
3065  "1"  "Closed" 182.4  0 182.4  0 182.4  0.1    38.9  -26.3  3065  1.04 "No"  "Yes" "" "" "" "" "WND (Wind)"                             0 202.7  0 0                  0                     0 "62836" "MNW"  
3068  "1"  "Closed" 152.0  0 152.0  0 152.0  0.0    32.4  -21.9  3068  1.04 "No"  "Yes" "" "" "" "" "WND (Wind)"                             0 168.9  0 0                  0                     0 "55968" "WTG1" 
3071  "1"  "Closed" 170.2  0 170.2  0 170.2  0.0    36.3  -24.5  3071  1.04 "No"  "Yes" "" "" "" "" "WND (Wind)"                             0 189.1  0 0                  0                     0 "56638" "GEN1" 
3074  "1"  "Closed" 99.8   0 99.8   0 99.8   0.0    21.3  -14.4  3074  1.04 "No"  "Yes" "" "" "" "" "WND (Wind)"                             0 110.9  0 0                  0                     0 "58000" "ANA"  
3081  "1"  "Closed" 249.0  0 249.0  0 249.0  0.0    53.0  -35.9  3081  1.04 "No"  "Yes" "" "" "" "" "WND (Wind)"                             0 276.7  0 0                  0                     0 "56981" "1"    
3084  "1"  "Closed" 232.5  0 232.5  0 232.5  0.0    49.5  -33.5  3084  1.04 "No"  "Yes" "" "" "" "" "WND (Wind)"                             0 258.3  0 0                  0                     0 "56484" "1"    
3086  "1"  "Closed" 75.0   0 75.0   0 75.0   0.0    16.0  -10.8  3086  1.04 "No"  "Yes" "" "" "" "" "WND (Wind)"                             0 83.3   0 0                  0                     0 "57303" "LWG2" 
3087  "1"  "Closed" 73.5   0 73.5   0 73.5   0.0    15.7  -10.6  3087  1.04 "No"  "Yes" "" "" "" "" "WND (Wind)"                             0 81.7   0 0                  0                     0 "57303" "LWG1" 
3092  "1"  "Closed" 200.0  0 200.0  0 200.0  50.0   42.6  -28.8  3092  1.04 "No"  "Yes" "" "" "" "" "WND (Wind)"                             0 222.2  0 0                  0                     0 "56483" "1"    
3095  "1"  "Closed" 120.6  0 120.6  0 120.6  0.0    25.7  -17.4  3095  1.04 "No"  "Yes" "" "" "" "" "WND (Wind)"                             0 134.0  0 0                  0                     0 "56240" "1"    
3098  "1"  "Closed" 182.4  0 182.4  0 182.4  10.4   38.9  -26.3  3098  1.04 "No"  "Yes" "" "" "" "" "WND (Wind)"                             0 202.7  0 0                  0                     0 "56111" "GEN1" 
3104  "3"  "Closed" 18.3   0 18.3   0 18.3   11.0   7.0   -0.9   3104  1.04 "No"  "Yes" "" "" "" "" "WAT (Water)"                            0 20.3   0 0                  0                     0 "3595"  "3"    
3105  "1"  "Closed" 18.3   0 18.3   0 18.3   11.0   7.0   -0.9   3105  1.04 "No"  "Yes" "" "" "" "" "WAT (Water)"                            0 20.3   0 0                  0                     0 "3595"  "1"    
3106  "2"  "Closed" 18.3   0 18.3   0 18.3   11.0   7.0   -0.9   3106  1.04 "No"  "Yes" "" "" "" "" "WAT (Water)"                            0 20.3   0 0                  0                     0 "3595"  "2"    
3110  "1"  "Closed" 155.4  0 155.4  0 155.4  0.0    33.1  -22.4  3110  1.04 "No"  "Yes" "" "" "" "" "WND (Wind)"                             0 172.7  0 0                  0                     0 "59245" "FLUV1"
3112  "1"  "Closed" 80.0   0 80.0   0 80.0   1.0    17.0  -11.5  3112  1.04 "No"  "Yes" "" "" "" "" "WND (Wind)"                             0 88.9   0 0                  0                     0 "56754" "1"    
3113  "2"  "Closed" 69.6   0 69.6   0 69.6   1.0    14.8  -10.0  3113  1.04 "No"  "Yes" "" "" "" "" "WND (Wind)"                             0 77.3   0 0                  0                     0 "56754" "2"    
3115  "1"  "Closed" 30.0   0 30.0   0 30.0   0.0    6.4   -4.3   3115  1.04 "No"  "Yes" "" "" "" "" "WND (Wind)"                             0 33.3   0 0                  0                     0 "58048" "1"    
3117  "1"  "Closed" 120.0  0 120.0  0 120.0  0.0    25.6  -17.3  3117  1.04 "No"  "Yes" "" "" "" "" "WND (Wind)"                             0 133.3  0 0                  0                     0 "56775" "1"    
3120  "1"  "Closed" 100.0  0 100.0  0 100.0  0      0     0      3120  1.04 "No"  "Yes" "" "" "" "" "MWH (Electricity use for Energy Storage)" 0 111.1  0 0                  0                     0 "66294" "A4BS1"
3122  "1"  "Closed" 197.0  0 197.0  0 197.0  0.0    42.0  -28.4  3122  1.04 "No"  "Yes" "" "" "" "" "WND (Wind)"                             0 218.9  0 0                  0                     0 "56984" "1"    
4007  "1"  "Closed" 10.0   0 10.0   0 10.0   0      0     0      4007  1.04 "No"  "Yes" "" "" "" "" "MWH (Electricity use for Energy Storage)" 0 11.1   0 0                  0                     0 "66927" "SMTMB"
4010  "1"  "Closed" 201.6  0 201.6  0 201.6  0.0    42.9  -29.0  4010  1.04 "No"  "Yes" "" "" "" "" "WND (Wind)"                             0 224.0  0 0                  0                     0 "56795" "1"    
4026  "1"  "Closed" 391.0  0 391.0  0 391.0  250.0  182.2 -47.7  4026  1.04 "Yes" "Yes" "" "" "" "" "BIT (Bituminous Coal)"                  1 434.4  0 8.0168776371308    0.02317919976972817   0 "6183"  "1"    
4030  "1"  "Closed" 655.0  0 655.0  0 655.0  175.0  305.2 -79.9  4030  1.04 "Yes" "Yes" "" "" "" "" "BIT (Bituminous Coal)"                  1 727.8  0 8.0168776371308    0.02317707643739244   0 "6178"  "1"    
4035  "1"  "Closed" 33.0   0 33.0   0 33.0   26.0   16.8  -3.7   4035  1.04 "Yes" "Yes" "" "" "" "" "NG (Natural Gas)"                       1 36.7   0 4.615363636363637  0.0029185947536263536 0 "50475" "GEN1" 
4041  "1"  "Closed" 10.0   0 10.0   0 10.0   0      0     0      4041  1.04 "No"  "Yes" "" "" "" "" "MWH (Electricity use for Energy Storage)" 0 11.1   0 0                  0                     0 "66929" "SMTAL"
4045  "1"  "Closed" 10.5   0 10.5   0 10.5   3.0    4.0   -0.5   4045  1.04 "No"  "Yes" "" "" "" "" "WAT (Water)"                            0 11.7   0 0                  0                     0 "6410"  "1"    
4046  "2"  "Closed" 10.0   0 10.0   0 10.0   3.0    3.8   -0.5   4046  1.04 "No"  "Yes" "" "" "" "" "WAT (Water)"                            0 11.1   0 0                  0                     0 "6410"  "2"    
4047  "3"  "Closed" 10.0   0 10.0   0 10.0   3.0    3.8   -0.5   4047  1.04 "No"  "Yes" "" "" "" "" "WAT (Water)"                            0 11.1   0 0                  0                     0 "6410"  "3"    
4050  "1"  "Closed" 272.6  0 272.6  0 272.6  0.2    58.1  -39.3  4050  1.04 "No"  "Yes" "" "" "" "" "WND (Wind)"                             0 302.9  0 0                  0                     0 "63739" "LMAJ" 
4052  "1"  "Closed" 32.5   0 32.5   0 32.5   18.0   16.5  -3.6   4052  1.04 "Yes" "Yes" "" "" "" "" "NG (Natural Gas)"                       1 36.1   0 4.614693675889328  0.004255190155101408  0 "10243" "GEN5" 
4058  "1"  "Closed" 155.0  0 155.0  0 155.0  0      78.9  -17.2  4058  1.04 "Yes" "Yes" "" "" "" "" "NG (Natural Gas)"                       1 172.2  0 4.778833992094862  0.0063284352697143805 0 "55313" "CTG1" 
4059  "1"  "Closed" 155.0  0 155.0  0 155.0  0      78.9  -17.2  4059  1.04 "Yes" "Yes" "" "" "" "" "NG (Natural Gas)"                       1 172.2  0 4.778833992094862  0.006517208939756499  0 "55313" "CTG2" 
4060  "1"  "Closed" 150.0  0 150.0  0 150.0  0      76.3  -16.6  4060  1.04 "Yes" "Yes" "" "" "" "" "NG (Natural Gas)"                       1 166.7  0 4.7721343873517785 0.006467339618863766  0 "55313" "STG"  
4065  "1"  "Closed" 150.0  0 150.0  0 150.0  0      0     0      4065  1.04 "No"  "Yes" "" "" "" "" "MWH (Electricity use for Energy Storage)" 0 166.7  0 0                  0                     0 "65589" "CARNA"
4067  "1"  "Closed" 10.0   0 10.0   0 10.0   0      0     0      4067  1.04 "No"  "Yes" "" "" "" "" "MWH (Electricity use for Energy Storage)" 0 11.1   0 0                  0                     0 "66933" "SMTH2"
4068  "1"  "Closed" 10.0   0 10.0   0 10.0   0      0     0      4068  1.04 "No"  "Yes" "" "" "" "" "MWH (Electricity use for Energy Storage)" 0 11.1   0 0                  0                     0 "66931" "SMTEL"
4069  "1"  "Closed" 26.6   0 26.6   0 26.6   5.0    12.4  -3.2   4069  1.04 "Yes" "Yes" "" "" "" "" "DFO (Distillate Fuel Oil)"              1 29.6   0 8.0168776371308    0.006628094475823317  0 "50121" "TG1"  
4069  "2"  "Closed" 26.6   0 26.6   0 26.6   5.0    12.4  -3.2   4069  1.04 "Yes" "Yes" "" "" "" "" "DFO (Distillate Fuel Oil)"              1 29.6   0 8.0168776371308    0.0076413249450454634 0 "50121" "TG2"  
4069  "3"  "Closed" 12.0   0 12.0   0 12.0   0.0    0     0      4069  1.04 "No"  "Yes" "" "" "" "" "OTH (Other)"                            0 13.3   0 0                  0                     0 "50121" "PRU"  
4075  "1"  "Closed" 181.0  0 181.0  0 181.0  100.0  92.1  -20.1  4075  1.04 "Yes" "Yes" "" "" "" "" "NG (Natural Gas)"                       1 201.1  0 4.813671936758894  0.0068662353527908    0 "55098" "GEN3" 
4076  "1"  "Closed" 177.0  0 177.0  0 177.0  70.0   90.1  -19.6  4076  1.04 "Yes" "Yes" "" "" "" "" "NG (Natural Gas)"                       1 196.7  0 4.808312252964427  0.007216075556206089  0 "55098" "GEN1" 
4077  "1"  "Closed" 177.0  0 177.0  0 177.0  70.0   90.1  -19.6  4077  1.04 "Yes" "Yes" "" "" "" "" "NG (Natural Gas)"                       1 196.7  0 4.808312252964427  0.0062370974696505    0 "55098" "GEN2" 
4082  "2"  "Closed" 319.0  0 319.0  0 319.0  100.0  162.4 -35.4  4082  1.04 "Yes" "Yes" "" "" "" "" "NG (Natural Gas)"                       1 354.4  0 4.998581027667984  0.007660630112994278  0 "4939"  "2"    
4083  "1"  "Closed" 292.0  0 292.0  0 292.0  60.0   148.6 -32.4  4083  1.04 "Yes" "Yes" "" "" "" "" "NG (Natural Gas)"                       1 324.4  0 4.9624031620553355 0.0072202526112119195 0 "4939"  "1"    
4084  "3"  "Closed" 157.0  0 157.0  0 157.0  60.0   79.9  -17.4  4084  1.04 "Yes" "Yes" "" "" "" "" "NG (Natural Gas)"                       1 174.4  0 4.781513833992095  0.005608367643271304  0 "4939"  "3"    
4085  "4"  "Closed" 157.0  0 157.0  0 157.0  60.0   79.9  -17.4  4085  1.04 "Yes" "Yes" "" "" "" "" "NG (Natural Gas)"                       1 174.4  0 4.781513833992095  0.0054558940417947024 0 "4939"  "4"    
4090  "1"  "Closed" 10.0   0 10.0   0 10.0   4.0    0     0      4090  1.04 "No"  "Yes" "" "" "" "" "OBL (Other Biomass Liquids)"            0 11.1   0 0                  0                     0 "54338" "GEND" 
4100  "1"  "Closed" 11.7   0 11.7   0 11.7   0      0     0      4100  1.04 "No"  "Yes" "" "" "" "" "OTH (Other)"                            0 13.0   0 0                  0                     0 "60642" "1"    
4100  "2"  "Closed" 11.7   0 11.7   0 11.7   0      0     0      4100  1.04 "No"  "Yes" "" "" "" "" "OTH (Other)"                            0 13.0   0 0                  0                     0 "60642" "2"    
4102  "1"  "Closed" 10.0   0 10.0   0 10.0   0      0     0      4102  1.04 "No"  "Yes" "" "" "" "" "MWH (Electricity use for Energy Storage)" 0 11.1   0 0                  0                     0 "66932" "SMTLF"
4103  "1"  "Closed" 18.3   0 18.3   0 18.3   7.5    9.3   -2.0   4103  1.04 "Yes" "Yes" "" "" "" "" "NG (Natural Gas)"                       1 20.3   0 4.595666798418972  0.002666283220760885  0 "59391" "ENG01"
4103  "2"  "Closed" 18.3   0 18.3   0 18.3   7.5    9.3   -2.0   4103  1.04 "Yes" "Yes" "" "" "" "" "NG (Natural Gas)"                       1 20.3   0 4.595666798418972  0.003743396493386447  0 "59391" "ENG02"
4103  "3"  "Closed" 18.3   0 18.3   0 18.3   7.5    9.3   -2.0   4103  1.04 "Yes" "Yes" "" "" "" "" "NG (Natural Gas)"                       1 20.3   0 4.595666798418972  0.002505496742843772  0 "59391" "ENG03"
4103  "4"  "Closed" 18.3   0 18.3   0 18.3   7.5    9.3   -2.0   4103  1.04 "Yes" "Yes" "" "" "" "" "NG (Natural Gas)"                       1 20.3   0 4.595666798418972  0.003094056896613451  0 "59391" "ENG04"
4103  "5"  "Closed" 18.3   0 18.3   0 18.3   7.5    9.3   -2.0   4103  1.04 "Yes" "Yes" "" "" "" "" "NG (Natural Gas)"                       1 20.3   0 4.595666798418972  0.003988141942316422  0 "59391" "ENG05"
4103  "6"  "Closed" 18.3   0 18.3   0 18.3   7.5    9.3   -2.0   4103  1.04 "Yes" "Yes" "" "" "" "" "NG (Natural Gas)"                       1 20.3   0 4.595666798418972  0.002624834886618883  0 "59391" "ENG06"
4103  "7"  "Closed" 18.3   0 18.3   0 18.3   7.5    9.3   -2.0   4103  1.04 "Yes" "Yes" "" "" "" "" "NG (Natural Gas)"                       1 20.3   0 4.595666798418972  0.003282798095315229  0 "59391" "ENG07"
4103  "8"  "Closed" 18.3   0 18.3   0 18.3   7.5    9.3   -2.0   4103  1.04 "Yes" "Yes" "" "" "" "" "NG (Natural Gas)"                       1 20.3   0 4.595666798418972  0.0028916159545830517 0 "59391" "ENG08"
4103  "9"  "Closed" 18.3   0 18.3   0 18.3   7.5    9.3   -2.0   4103  1.04 "Yes" "Yes" "" "" "" "" "NG (Natural Gas)"                       1 20.3   0 4.595666798418972  0.002532324069483216  0 "59391" "ENG09"
4103  "10" "Closed" 18.3   0 18.3   0 18.3   7.5    9.3   -2.0   4103  1.04 "Yes" "Yes" "" "" "" "" "NG (Natural Gas)"                       1 20.3   0 4.595666798418972  0.003392861909133604  0 "59391" "ENG10"
4103  "11" "Closed" 18.3   0 18.3   0 18.3   7.5    9.3   -2.0   4103  1.04 "Yes" "Yes" "" "" "" "" "NG (Natural Gas)"                       1 20.3   0 4.595666798418972  0.0030526896839251534 0 "59391" "ENG11"
4103  "12" "Closed" 18.3   0 18.3   0 18.3   7.5    9.3   -2.0   4103  1.04 "Yes" "Yes" "" "" "" "" "NG (Natural Gas)"                       1 20.3   0 4.595666798418972  0.002442654425075467  0 "59391" "ENG12"
4105  "1"  "Closed" 180.0  0 180.0  0 180.0  0.0    38.3  -25.9  4105  1.04 "No"  "Yes" "" "" "" "" "WND (Wind)"                             0 200.0  0 0                  0                     0 "56983" "1"    
4111  "1"  "Closed" 10.0   0 10.0   0 10.0   0      0     0      4111  1.04 "No"  "Yes" "" "" "" "" "MWH (Electricity use for Energy Storage)" 0 11.1   0 0                  0                     0 "66928" "SMTSR"
4115  "4"  "Closed" 90.1   0 90.1   0 90.1   35.0   45.9  -10.0  4115  1.04 "Yes" "Yes" "" "" "" "" "NG (Natural Gas)"                       1 100.1  0 4.691873122529644  0.004556797390390386  0 "3439"  "4"    
...